@<TRIPOS>MOLECULE
MOL
56 59 1 0 0
SMALL
resp


@<TRIPOS>ATOM
      1 C12         3.2000   -1.6530   -0.2690 c3        1 MOL    0.0208
      2 C11         4.7250   -1.7140   -0.3160 c3        1 MOL   -0.3601
      3 C10         5.2990   -0.4620   -0.9350 c         1 MOL    0.7701
      4 C9          4.5830    0.7900   -0.6200 ce        1 MOL   -0.5161
      5 C8          3.4240    0.8380    0.0340 c2        1 MOL    0.0233
      6 C13         2.8400    2.1630    0.4540 c3        1 MOL   -0.0494
      7 C14         1.3800    2.3120    0.0330 c3        1 MOL   -0.0810
      8 C2          0.5120    1.1290    0.4800 c3        1 MOL   -0.0426
      9 C3          1.1480   -0.2000   -0.0000 c3        1 MOL   -0.0320
     10 C7          2.6390   -0.4080    0.4550 c3        1 MOL    0.2707
     11 C4          0.2340   -1.4250    0.2180 c3        1 MOL    0.2535
     12 C5         -1.2020   -1.2070   -0.2920 c3        1 MOL   -0.2591
     13 C          -1.8420    0.0920    0.2170 c3        1 MOL    0.4904
     14 C1         -0.8870    1.2500   -0.1310 c3        1 MOL   -0.0390
     15 C20        -1.7200    2.5100    0.1310 c3        1 MOL   -0.0464
     16 C16        -3.1640    2.0860   -0.2430 c3        1 MOL   -0.1039
     17 C17        -3.1180    0.5700   -0.5560 c3        1 MOL    0.0074
     18 C6         -2.1620    0.0070    1.7240 c3        1 MOL   -0.5120
     19 C15         2.8260   -0.5650    1.9850 c3        1 MOL   -0.2930
     20 C18        -4.4110   -0.1550   -0.1570 c         1 MOL    0.6007
     21 C19        -4.8050   -1.3550   -1.0070 c3        1 MOL    0.2080
     22 O2          6.2980   -0.4690   -1.5940 o         1 MOL   -0.5963
     23 O4         -2.8950    0.3420   -1.9360 oh        1 MOL   -0.7648
     24 O3         -5.0780    0.2060    0.7570 o         1 MOL   -0.5072
     25 O1         -5.7980   -2.0720   -0.3490 oh        1 MOL   -0.7145
     26 H1          2.8180   -2.5490    0.2060 hc        1 MOL    0.0247
     27 H2          2.8350   -1.6600   -1.2930 hc        1 MOL    0.0247
     28 H3          5.1430   -1.8050    0.6840 hc        1 MOL    0.1012
     29 H4          5.0680   -2.5710   -0.8840 hc        1 MOL    0.1012
     30 H5          5.0920    1.6930   -0.9090 ha        1 MOL    0.1897
     31 H6          3.4340    2.9730    0.0470 hc        1 MOL    0.0489
     32 H7          2.9090    2.2420    1.5370 hc        1 MOL    0.0489
     33 H8          0.9840    3.2390    0.4350 hc        1 MOL    0.0342
     34 H9          1.3320    2.3950   -1.0510 hc        1 MOL    0.0342
     35 H10         0.4450    1.1390    1.5640 hc        1 MOL    0.0664
     36 H11        -1.1760   -1.1910   -1.3750 hc        1 MOL    0.0644
     37 H12        -1.7920   -2.0780   -0.0070 hc        1 MOL    0.0644
     38 H13        -0.7450    1.1970   -1.2070 hc        1 MOL    0.0536
     39 H14        -1.3850    3.3550   -0.4580 hc        1 MOL    0.0242
     40 H15        -1.6680    2.8100    1.1730 hc        1 MOL    0.0242
     41 H16        -3.8600    2.2760    0.5600 hc        1 MOL    0.0466
     42 H17        -3.5320    2.6280   -1.1090 hc        1 MOL    0.0466
     43 H18        -3.9260   -1.9620   -1.2050 h1        1 MOL    0.0069
     44 H19        -5.1460   -0.9790   -1.9690 h1        1 MOL    0.0069
     45 H20         2.2940    0.1960    2.5420 hc        1 MOL    0.0742
     46 H21         3.8770   -0.4780    2.2410 hc        1 MOL    0.0742
     47 H22         2.4640   -1.5210    2.3260 hc        1 MOL    0.0742
     48 H23        -6.1000   -2.7720   -0.9090 ho        1 MOL    0.4520
     49 H24        -3.3680    0.9810   -2.4500 ho        1 MOL    0.4801
     50 H25        -2.7170    0.8650    2.0760 hc        1 MOL    0.1196
     51 H26        -1.2610   -0.0830    2.3090 hc        1 MOL    0.1196
     52 H27        -2.7730   -0.8640    1.9350 hc        1 MOL    0.1196
     53 H28         0.6420   -2.2490   -0.3600 h1        1 MOL   -0.0138
     54 O           0.2530   -1.7860    1.5810 oh        1 MOL   -0.6782
     55 H29        -0.3380   -2.5120    1.7230 ho        1 MOL    0.4314
     56 H30         1.2060   -0.1070   -1.0850 hc        1 MOL    0.0075
@<TRIPOS>BOND
     1    1    2 1
     2    1   10 1
     3    1   26 1
     4    1   27 1
     5    2    3 1
     6    2   28 1
     7    2   29 1
     8    3   22 2
     9    4   30 1
    10    5    6 1
    11    5   10 1
    12    6    7 1
    13    6   31 1
    14    6   32 1
    15    7    8 1
    16    7   33 1
    17    7   34 1
    18    8    9 1
    19    8   14 1
    20    8   35 1
    21    9   10 1
    22    9   11 1
    23    9   56 1
    24   10   19 1
    25   11   12 1
    26   11   53 1
    27   11   54 1
    28   12   13 1
    29   12   36 1
    30   12   37 1
    31   13   14 1
    32   13   17 1
    33   13   18 1
    34   14   15 1
    35   14   38 1
    36   15   16 1
    37   15   39 1
    38   15   40 1
    39   16   17 1
    40   16   41 1
    41   16   42 1
    42   17   20 1
    43   17   23 1
    44   18   50 1
    45   18   51 1
    46   18   52 1
    47   19   45 1
    48   19   46 1
    49   19   47 1
    50   20   21 1
    51   20   24 2
    52   21   25 1
    53   21   43 1
    54   21   44 1
    55   48   25 1
    56    4    3 1
    57    4    5 1
    58   55   54 1
    59   49   23 1
@<TRIPOS>SUBSTRUCTURE
     1 MOL     1 RESIDUE           4 A     MOL     0 ROOT
