@<TRIPOS>MOLECULE
MOL
56 59 1 0 0
SMALL
resp


@<TRIPOS>ATOM
      1 C12        17.2307   69.9562   18.5628 c3        1 MOL    0.0208
      2 C11        17.1946   68.7831   17.5859 c3        1 MOL   -0.3601
      3 C10        18.1389   69.0108   16.4298 c         1 MOL    0.7701
      4 C9         19.3997   69.7022   16.7641 ce        1 MOL   -0.5161
      5 C8         19.6595   70.2377   17.9554 c2        1 MOL    0.0233
      6 C13        21.0305   70.7844   18.2628 c3        1 MOL   -0.0494
      7 C14        20.9751   72.1991   18.8344 c3        1 MOL   -0.0810
      8 C2         20.0232   72.3164   20.0314 c3        1 MOL   -0.0426
      9 C3         18.6274   71.7628   19.6488 c3        1 MOL   -0.0320
     10 C7         18.6416   70.2895   19.0987 c3        1 MOL    0.2707
     11 C4         17.5500   72.0373   20.7199 c3        1 MOL    0.2535
     12 C5         17.5260   73.5021   21.1927 c3        1 MOL   -0.2591
     13 C          18.9047   74.0344   21.6072 c3        1 MOL    0.4904
     14 C1         19.8725   73.7861   20.4342 c3        1 MOL   -0.0390
     15 C20        21.1180   74.6010   20.8014 c3        1 MOL   -0.0464
     16 C16        20.5491   75.8312   21.5550 c3        1 MOL   -0.1039
     17 C17        19.0276   75.5924   21.7165 c3        1 MOL    0.0074
     18 C6         19.3805   73.3926   22.9272 c3        1 MOL   -0.5120
     19 C15        19.0718   69.2223   20.1363 c3        1 MOL   -0.2930
     20 C18        18.4719   76.1834   23.0198 c         1 MOL    0.6007
     21 C19        17.0319   76.6760   22.9807 c3        1 MOL    0.2080
     22 O2         17.9113   68.6129   15.3243 o         1 MOL   -0.5963
     23 O4         18.3065   76.1571   20.6361 oh        1 MOL   -0.7648
     24 O3         19.1313   76.2659   24.0042 o         1 MOL   -0.5072
     25 O1         16.5879   76.8866   24.2813 oh        1 MOL   -0.7145
     26 H1         16.5676   69.7524   19.3953 hc        1 MOL    0.0247
     27 H2         16.8328   70.8284   18.0501 hc        1 MOL    0.0247
     28 H3         17.4940   67.8588   18.0748 hc        1 MOL    0.1012
     29 H4         16.1964   68.6273   17.1936 hc        1 MOL    0.1012
     30 H5         20.1419   69.7019   15.9849 ha        1 MOL    0.1897
     31 H6         21.6445   70.7626   17.3700 hc        1 MOL    0.0489
     32 H7         21.5098   70.1264   18.9847 hc        1 MOL    0.0489
     33 H8         21.9749   72.5095   19.1201 hc        1 MOL    0.0342
     34 H9         20.6462   72.8824   18.0539 hc        1 MOL    0.0342
     35 H10        20.4355   71.7459   20.8586 hc        1 MOL    0.0664
     36 H11        17.1371   74.1104   20.3848 hc        1 MOL    0.0644
     37 H12        16.8099   73.5757   22.0111 hc        1 MOL    0.0644
     38 H13        19.4251   74.2828   19.5775 hc        1 MOL    0.0536
     39 H14        21.6901   74.8942   19.9297 hc        1 MOL    0.0242
     40 H15        21.7865   74.0357   21.4433 hc        1 MOL    0.0242
     41 H16        21.0078   75.9570   22.5241 hc        1 MOL    0.0466
     42 H17        20.7193   76.7535   21.0077 hc        1 MOL    0.0466
     43 H18        16.4170   75.9537   22.4511 h1        1 MOL    0.0069
     44 H19        17.0130   77.5907   22.3925 h1        1 MOL    0.0069
     45 H20        19.9722   69.5070   20.6660 hc        1 MOL    0.0742
     46 H21        19.2743   68.2803   19.6371 hc        1 MOL    0.0742
     47 H22        18.3035   69.0651   20.8754 hc        1 MOL    0.0742
     48 H23        15.7222   77.2670   24.2573 ho        1 MOL    0.4520
     49 H24        18.6954   76.9826   20.3840 ho        1 MOL    0.4801
     50 H25        20.2937   73.8379   23.2957 hc        1 MOL    0.1196
     51 H26        19.5379   72.3326   22.8103 hc        1 MOL    0.1196
     52 H27        18.6363   73.5252   23.7050 hc        1 MOL    0.1196
     53 H28        16.5802   71.8451   20.2703 h1        1 MOL   -0.0138
     54 O          17.7245   71.1453   21.7981 oh        1 MOL   -0.6782
     55 H29        17.0895   71.3388   22.4732 ho        1 MOL    0.4314
     56 H30        18.3101   72.3669   18.7981 hc        1 MOL    0.0075
@<TRIPOS>BOND
     1    1    2 1
     2    1   10 1
     3    1   26 1
     4    1   27 1
     5    2    3 1
     6    2   28 1
     7    2   29 1
     8    3   22 2
     9    4   30 1
    10    5    6 1
    11    5   10 1
    12    6    7 1
    13    6   31 1
    14    6   32 1
    15    7    8 1
    16    7   33 1
    17    7   34 1
    18    8    9 1
    19    8   14 1
    20    8   35 1
    21    9   10 1
    22    9   11 1
    23    9   56 1
    24   10   19 1
    25   11   12 1
    26   11   53 1
    27   11   54 1
    28   12   13 1
    29   12   36 1
    30   12   37 1
    31   13   14 1
    32   13   17 1
    33   13   18 1
    34   14   15 1
    35   14   38 1
    36   15   16 1
    37   15   39 1
    38   15   40 1
    39   16   17 1
    40   16   41 1
    41   16   42 1
    42   17   20 1
    43   17   23 1
    44   18   50 1
    45   18   51 1
    46   18   52 1
    47   19   45 1
    48   19   46 1
    49   19   47 1
    50   20   21 1
    51   20   24 2
    52   21   25 1
    53   21   43 1
    54   21   44 1
    55    4    3 1
    56    4    5 1
    57   48   25 1
    58   55   54 1
    59   49   23 1
@<TRIPOS>SUBSTRUCTURE
     1 MOL     1 RESIDUE           4 A     MOL     0 ROOT
