@<TRIPOS>MOLECULE
STR
53 56 1 0 0
SMALL
resp


@<TRIPOS>ATOM
      1 C12        -3.1160    0.4814   -0.1217 c3        1 MOL    0.0717
      2 C11        -4.5517    0.0759    0.2025 c3        1 MOL   -0.3353
      3 C10        -4.7563   -1.4087    0.0200 c         1 MOL    0.7587
      4 O2         -5.8008   -1.8758   -0.3331 o         1 MOL   -0.5921
      5 C9         -3.5994   -2.2611    0.3602 ce        1 MOL   -0.4980
      6 C8         -2.3983   -1.7925    0.6882 c2        1 MOL    0.0267
      7 C13        -1.3148   -2.7423    1.1380 c3        1 MOL   -0.0333
      8 C14        -0.0061   -2.5276    0.3804 c3        1 MOL   -0.1453
      9 C2          0.4534   -1.0713    0.4620 c3        1 MOL   -0.0214
     10 C3         -0.6617   -0.1304   -0.0618 c3        1 MOL    0.0143
     11 C7         -2.0398   -0.3024    0.6671 c3        1 MOL    0.2164
     12 C4         -0.1864    1.3371   -0.1229 c3        1 MOL   -0.0316
     13 C5          1.1353    1.5208   -0.8877 c3        1 MOL   -0.2500
     14 C           2.2406    0.6188   -0.3290 c3        1 MOL    0.2937
     15 C1          1.7224   -0.8357   -0.3605 c3        1 MOL   -0.0146
     16 C20         2.9689   -1.6848   -0.0859 c3        1 MOL   -0.0280
     17 C16         4.1168   -0.8950   -0.7642 c3        1 MOL   -0.2280
     18 C17         3.5052    0.4508   -1.2283 c3        1 MOL   -0.0059
     19 C6          2.6517    1.0864    1.0814 c3        1 MOL   -0.4320
     20 C15        -1.9971    0.2044    2.1268 c3        1 MOL   -0.3608
     21 C18         4.4930    1.6093   -1.2034 c         1 MOL    0.5974
     22 O3          5.3680    1.6789   -0.3931 o         1 MOL   -0.5511
     23 C19         4.3382    2.6731   -2.2695 c3        1 MOL   -0.2658
     24 H1         -2.9521    0.3237   -1.1843 hc        1 MOL    0.0013
     25 H2         -3.0002    1.5439    0.0553 hc        1 MOL    0.0013
     26 H3         -4.8013    0.3136    1.2339 hc        1 MOL    0.0951
     27 H4         -5.2602    0.6032   -0.4246 hc        1 MOL    0.0951
     28 H5         -3.8014   -3.3178    0.3696 ha        1 MOL    0.1872
     29 H6         -1.1361   -2.5898    2.2014 hc        1 MOL    0.0495
     30 H7         -1.6574   -3.7651    1.0274 hc        1 MOL    0.0495
     31 H8          0.7549   -3.1870    0.7864 hc        1 MOL    0.0519
     32 H9         -0.1428   -2.8082   -0.6620 hc        1 MOL    0.0519
     33 H10         0.6608   -0.8463    1.5053 hc        1 MOL    0.0461
     34 H11        -0.8414   -0.4415   -1.0923 hc        1 MOL    0.0076
     35 H12        -0.9396    1.9475   -0.6067 hc        1 MOL    0.0276
     36 H13        -0.0736    1.7340    0.8794 hc        1 MOL    0.0276
     37 H14         0.9736    1.2831   -1.9377 hc        1 MOL    0.0508
     38 H15         1.4190    2.5683   -0.8444 hc        1 MOL    0.0508
     39 H16         1.4466   -1.0244   -1.3986 hc        1 MOL    0.0195
     40 H17         3.1454   -1.7880    0.9808 hc        1 MOL    0.0259
     41 H18         2.8767   -2.6877   -0.4870 hc        1 MOL    0.0259
     42 H19         4.9336   -0.7143   -0.0791 hc        1 MOL    0.0768
     43 H20         4.5277   -1.4344   -1.6104 hc        1 MOL    0.0768
     44 H21         3.1513    0.3484   -2.2512 hc        1 MOL   -0.0113
     45 H22        -1.1978   -0.2518    2.6989 hc        1 MOL    0.0887
     46 H23        -2.9256   -0.0216    2.6384 hc        1 MOL    0.0887
     47 H24        -1.8558    1.2785    2.1634 hc        1 MOL    0.0887
     48 H25         1.8398    1.0029    1.7908 hc        1 MOL    0.1096
     49 H26         3.4899    0.5239    1.4722 hc        1 MOL    0.1096
     50 H27         2.9564    2.1271    1.0603 hc        1 MOL    0.1096
     51 H28         4.9874    3.5087   -2.0514 hc        1 MOL    0.0709
     52 H29         4.6096    2.2524   -3.2351 hc        1 MOL    0.0709
     53 H30         3.3105    3.0110   -2.3472 hc        1 MOL    0.0709
@<TRIPOS>BOND
     1    1    2 1
     2    1   11 1
     3    1   24 1
     4    1   25 1
     5    2    3 1
     6    2   26 1
     7    2   27 1
     8    3    4 2
     9    5   28 1
    10    6    7 1
    11    6   11 1
    12    7    8 1
    13    7   29 1
    14    7   30 1
    15    8    9 1
    16    8   31 1
    17    8   32 1
    18    9   10 1
    19    9   15 1
    20    9   33 1
    21   10   11 1
    22   10   12 1
    23   10   34 1
    24   11   20 1
    25   12   13 1
    26   12   35 1
    27   12   36 1
    28   13   14 1
    29   13   37 1
    30   13   38 1
    31   14   15 1
    32   14   18 1
    33   14   19 1
    34   15   16 1
    35   15   39 1
    36   16   17 1
    37   16   40 1
    38   16   41 1
    39   17   18 1
    40   17   42 1
    41   17   43 1
    42   18   21 1
    43   18   44 1
    44   19   48 1
    45   19   49 1
    46   19   50 1
    47   20   45 1
    48   20   46 1
    49   20   47 1
    50   21   22 2
    51   21   23 1
    52   23   51 1
    53   23   52 1
    54   23   53 1
    55    5    3 1
    56    5    6 1
@<TRIPOS>SUBSTRUCTURE
     1 MOL     1 RESIDUE           4 A     MOL     0 ROOT
