@<TRIPOS>MOLECULE
MOL
   53    56     1     0     0
SMALL
resp


@<TRIPOS>ATOM
      1 C1           2.9220    -1.6450    -0.1620 c3         1 MOL       0.071682
      2 C2           4.4460    -1.6280    -0.0720 c3         1 MOL      -0.335280
      3 C3           5.0150    -0.3560    -0.6530 c          1 MOL       0.758692
      4 O1           6.0800    -0.3180    -1.1990 o          1 MOL      -0.592133
      5 C4           4.1990     0.8590    -0.4560 ce         1 MOL      -0.497992
      6 C5           2.9810     0.8610     0.0790 c2         1 MOL       0.026680
      7 C6           2.2780     2.1690     0.3500 c3         1 MOL      -0.033291
      8 C7           0.8600     2.1920    -0.2170 c3         1 MOL      -0.145253
      9 C8           0.0410     1.0000     0.2800 c3         1 MOL      -0.021443
     10 C9           0.7650    -0.3260    -0.0670 c3         1 MOL       0.014292
     11 C10          2.2330    -0.4160     0.4780 c3         1 MOL       0.216351
     12 C11         -0.0940    -1.5560     0.2970 c3         1 MOL      -0.031597
     13 C12         -1.5170    -1.5020    -0.2840 c3         1 MOL      -0.250005
     14 C13         -2.2370    -0.2070     0.1060 c3         1 MOL       0.293669
     15 C14         -1.3550     0.9770    -0.3470 c3         1 MOL      -0.014559
     16 C15         -2.2670     2.2010    -0.2050 c3         1 MOL      -0.028003
     17 C16         -3.6760     1.6610    -0.5580 c3         1 MOL      -0.228046
     18 C17         -3.5310     0.1250    -0.7010 c3         1 MOL      -0.005947
     19 C18         -2.5380    -0.1960     1.6180 c3         1 MOL      -0.431967
     20 C19          2.2790    -0.5410     2.0180 c3         1 MOL      -0.360828
     21 C20         -4.7800    -0.6450    -0.2940 c          1 MOL       0.597383
     22 O2          -5.5060    -0.2620     0.5740 o          1 MOL      -0.551090
     23 C21         -5.0850    -1.9190    -1.0530 c3         1 MOL      -0.265840
     24 H1           2.6460    -1.6910    -1.2120 hc         1 MOL       0.001296
     25 H2           2.5510    -2.5540     0.2960 hc         1 MOL       0.001296
     26 H3           4.7770    -1.6890     0.9620 hc         1 MOL       0.095127
     27 H4           4.8800    -2.4720    -0.5940 hc         1 MOL       0.095127
     28 H5           4.6790     1.7790    -0.7400 ha         1 MOL       0.187182
     29 H6           2.2300     2.3230     1.4270 hc         1 MOL       0.049549
     30 H7           2.8640     2.9880    -0.0520 hc         1 MOL       0.049549
     31 H8           0.3780     3.1240     0.0620 hc         1 MOL       0.051945
     32 H9           0.9060     2.1740    -1.3040 hc         1 MOL       0.051945
     33 H10         -0.0570     1.0910     1.3590 hc         1 MOL       0.046073
     34 H11          0.8620    -0.3260    -1.1540 hc         1 MOL       0.007636
     35 H12          0.3820    -2.4580    -0.0690 hc         1 MOL       0.027585
     36 H13         -0.1550    -1.6620     1.3740 hc         1 MOL       0.027585
     37 H14         -1.4600    -1.5690    -1.3690 hc         1 MOL       0.050757
     38 H15         -2.0640    -2.3770     0.0550 hc         1 MOL       0.050757
     39 H16         -1.2010     0.8330    -1.4170 hc         1 MOL       0.019494
     40 H17         -2.2430     2.5920     0.8080 hc         1 MOL       0.025871
     41 H18         -1.9690     3.0110    -0.8610 hc         1 MOL       0.025871
     42 H19         -4.3960     1.8950     0.2140 hc         1 MOL       0.076835
     43 H20         -4.0500     2.0920    -1.4800 hc         1 MOL       0.076835
     44 H21         -3.3240    -0.1190    -1.7400 hc         1 MOL      -0.011286
     45 H22          1.7310     0.2520     2.5130 hc         1 MOL       0.088650
     46 H23          3.3010    -0.4950     2.3760 hc         1 MOL       0.088650
     47 H24          1.8590    -1.4850     2.3460 hc         1 MOL       0.088650
     48 H25         -1.6350    -0.2020     2.2130 hc         1 MOL       0.109572
     49 H26         -3.1220     0.6660     1.9140 hc         1 MOL       0.109572
     50 H27         -3.1130    -1.0730     1.8950 hc         1 MOL       0.109572
     51 H28         -5.8950    -2.4480    -0.5720 hc         1 MOL       0.070943
     52 H29         -5.3770    -1.6670    -2.0700 hc         1 MOL       0.070943
     53 H30         -4.2120    -2.5590    -1.1220 hc         1 MOL       0.070943
@<TRIPOS>BOND
     1     1     2 1   
     2     1    11 1   
     3     1    24 1   
     4     1    25 1   
     5     2     3 1   
     6     2    26 1   
     7     2    27 1   
     8     3     4 2   
     9     3     5 1   
    10     5     6 2   
    11     5    28 1   
    12     6     7 1   
    13     6    11 1   
    14     7     8 1   
    15     7    29 1   
    16     7    30 1   
    17     8     9 1   
    18     8    31 1   
    19     8    32 1   
    20     9    10 1   
    21     9    15 1   
    22     9    33 1   
    23    10    11 1   
    24    10    12 1   
    25    10    34 1   
    26    11    20 1   
    27    12    13 1   
    28    12    35 1   
    29    12    36 1   
    30    13    14 1   
    31    13    37 1   
    32    13    38 1   
    33    14    15 1   
    34    14    18 1   
    35    14    19 1   
    36    15    16 1   
    37    15    39 1   
    38    16    17 1   
    39    16    40 1   
    40    16    41 1   
    41    17    18 1   
    42    17    42 1   
    43    17    43 1   
    44    18    21 1   
    45    18    44 1   
    46    19    48 1   
    47    19    49 1   
    48    19    50 1   
    49    20    45 1   
    50    20    46 1   
    51    20    47 1   
    52    21    22 2   
    53    21    23 1   
    54    23    51 1   
    55    23    52 1   
    56    23    53 1   
@<TRIPOS>SUBSTRUCTURE
     1 MOL         1 TEMP              0 ****  ****    0 ROOT
