@<TRIPOS>MOLECULE
MOL
   54    57     1     0     0
SMALL
resp


@<TRIPOS>ATOM
      1 C1          -0.8720     1.2640    -0.2740 c3         1 MOL      -0.130448
      2 C2          -1.2000    -1.2120    -0.3280 c3         1 MOL      -0.054278
      3 C3          -2.2620     0.1070     1.5330 c          1 MOL       0.334317
      4 C4           2.6290    -0.4290     0.3880 c3         1 MOL       0.411844
      5 C5           3.4260     0.8240     0.0080 c2         1 MOL       0.018021
      6 C6           4.5960     0.7820    -0.6240 ce         1 MOL      -0.497880
      7 C7           5.3100    -0.4660    -0.9640 c          1 MOL       0.745175
      8 C8           2.8280    -0.6510     1.9090 c3         1 MOL      -0.412507
      9 C9          -3.1310     2.1200    -0.5300 c3         1 MOL      -0.388721
     10 C10         -3.0830     0.5930    -0.7840 c3         1 MOL      -0.140444
     11 C11         -4.4530    -0.0700    -0.6210 c          1 MOL       0.600014
     12 C12         -4.5360    -1.5800    -0.8090 c3         1 MOL       0.163892
     13 C13         -1.7110     2.5320    -0.0670 c3         1 MOL       0.111255
     14 C14         -1.8570     0.1250     0.0530 c3         1 MOL       0.579007
     15 C15          0.5130     1.1490     0.3790 c3         1 MOL       0.016100
     16 C16          1.1300    -0.2100    -0.0340 c3         1 MOL      -0.431016
     17 C17          0.1710    -1.3640     0.3380 c3         1 MOL       0.374772
     18 O1          -0.0920    -1.4180     1.7240 oh         1 MOL      -0.718935
     19 O2          -3.2570    -0.4470     1.9150 o          1 MOL      -0.510118
     20 O3           6.3300    -0.4580    -1.5900 o          1 MOL      -0.583818
     21 C18          4.7030    -1.7370    -0.4180 c3         1 MOL      -0.278553
     22 C19          3.1790    -1.6480    -0.3910 c3         1 MOL      -0.001456
     23 C20          2.8380     2.1450     0.4340 c3         1 MOL      -0.048196
     24 C21          1.4050     2.3110    -0.0630 c3         1 MOL      -0.129360
     25 O4          -5.4440     0.5920    -0.4410 o          1 MOL      -0.511305
     26 O5          -5.8480    -1.9560    -1.0920 oh         1 MOL      -0.701795
     27 H1          -0.6950     1.1880    -1.3470 hc         1 MOL       0.030583
     28 H2          -1.8090    -2.0560    -0.0300 hc         1 MOL      -0.051937
     29 H3          -1.0810    -1.2510    -1.4080 hc         1 MOL      -0.051937
     30 H4           5.1170     1.6880    -0.8800 ha         1 MOL       0.192717
     31 H5          -3.8750     2.3420     0.2210 hc         1 MOL       0.124787
     32 H6          -3.4330     2.6460    -1.4270 hc         1 MOL       0.124787
     33 H7          -2.8180     0.4180    -1.8270 hc         1 MOL       0.008061
     34 H8          -4.1880    -2.0400     0.1100 h1         1 MOL       0.025189
     35 H9          -3.8560    -1.8740    -1.6060 h1         1 MOL       0.025189
     36 H10         -1.3270     3.3760    -0.6280 hc         1 MOL      -0.012961
     37 H11         -1.7170     2.8280     0.9790 hc         1 MOL      -0.012961
     38 H12          0.4180     1.1860     1.4600 hc         1 MOL       0.051602
     39 H13          1.1580    -0.2000    -1.1230 hc         1 MOL       0.101468
     40 H14          0.5900    -2.3100     0.0110 h1         1 MOL       0.002727
     41 H15          5.0370    -2.5700    -1.0240 hc         1 MOL       0.081479
     42 H16          5.1040    -1.8890     0.5820 hc         1 MOL       0.081479
     43 H17          2.7780    -2.5660     0.0240 hc         1 MOL       0.008973
     44 H18          2.8270    -1.5940    -1.4180 hc         1 MOL       0.008973
     45 H19          2.8470     2.2000     1.5210 hc         1 MOL       0.055264
     46 H20          3.4620     2.9570     0.0770 hc         1 MOL       0.055264
     47 H21          1.4110     2.3710    -1.1500 hc         1 MOL       0.059561
     48 H22          1.0030     3.2510     0.3010 hc         1 MOL       0.059561
     49 H23         -5.8470    -2.7120    -1.6590 ho         1 MOL       0.446540
     50 H24          3.8700    -0.5200     2.1780 hc         1 MOL       0.098210
     51 H25          2.2470     0.0370     2.5080 hc         1 MOL       0.098210
     52 H26          2.5590    -1.6610     2.2000 hc         1 MOL       0.098210
     53 H27          0.5760    -1.9010     2.1850 ho         1 MOL       0.444835
     54 H28         -1.6230     0.6330     2.2400 h4         1 MOL       0.030562
@<TRIPOS>BOND
     1     1    13 1   
     2     1    14 1   
     3     1    15 1   
     4     1    27 1   
     5     2    14 1   
     6     2    17 1   
     7     2    28 1   
     8     2    29 1   
     9     3    14 1   
    10     3    19 2   
    11     3    54 1   
    12     4     5 1   
    13     4     8 1   
    14     4    16 1   
    15     4    22 1   
    16     5     6 2   
    17     5    23 1   
    18     6     7 1   
    19     6    30 1   
    20     7    20 2   
    21     7    21 1   
    22     8    50 1   
    23     8    51 1   
    24     8    52 1   
    25     9    10 1   
    26     9    13 1   
    27     9    31 1   
    28     9    32 1   
    29    10    11 1   
    30    10    14 1   
    31    10    33 1   
    32    11    12 1   
    33    11    25 2   
    34    12    26 1   
    35    12    34 1   
    36    12    35 1   
    37    13    36 1   
    38    13    37 1   
    39    15    16 1   
    40    15    24 1   
    41    15    38 1   
    42    16    17 1   
    43    16    39 1   
    44    17    18 1   
    45    17    40 1   
    46    18    53 1   
    47    21    22 1   
    48    21    41 1   
    49    21    42 1   
    50    22    43 1   
    51    22    44 1   
    52    23    24 1   
    53    23    45 1   
    54    23    46 1   
    55    24    47 1   
    56    24    48 1   
    57    26    49 1   
@<TRIPOS>SUBSTRUCTURE
     1 MOL         1 TEMP              0 ****  ****    0 ROOT
