@<TRIPOS>MOLECULE
AS4
54 57 1 0 0
SMALL
resp


@<TRIPOS>ATOM
      1 C1         19.8915   73.7845   20.4306 c3        1 AS4   -0.1304
      2 C5         17.5461   73.4774   21.2342 c3        1 AS4   -0.0543
      3 C6         19.4094   73.4976   22.9249 c         1 AS4    0.3343
      4 C7         18.6079   70.3014   19.0957 c3        1 AS4    0.4118
      5 C8         19.6657   70.2157   17.9896 c2        1 AS4    0.0180
      6 C9         19.4298   69.6851   16.7926 ce        1 AS4   -0.4979
      7 C10        18.1565   69.0424   16.4072 c         1 AS4    0.7452
      8 C15        18.9347   69.1896   20.1250 c3        1 AS4   -0.4125
      9 C16        20.5579   75.8736   21.4761 c3        1 AS4   -0.3887
     10 C17        19.0396   75.6237   21.6515 c3        1 AS4   -0.1404
     11 C18        18.4472   76.4189   22.8176 c         1 AS4    0.6000
     12 C19        16.9651   76.2343   23.1203 c3        1 AS4    0.1639
     13 C20        21.1346   74.6072   20.7949 c3        1 AS4    0.1113
     14 C          18.9182   74.0732   21.5899 c3        1 AS4    0.5790
     15 C2         20.0399   72.3060   20.0438 c3        1 AS4    0.0161
     16 C3         18.6352   71.7546   19.6962 c3        1 AS4   -0.4310
     17 C4         17.6641   71.9929   20.8752 c3        1 AS4    0.3748
     18 O          18.0916   71.3559   22.0603 oh        1 AS4   -0.7189
     19 O1         19.0032   73.9008   23.9810 o         1 AS4   -0.5101
     20 O2         17.9665   68.6351   15.2980 o         1 AS4   -0.5838
     21 C11        17.1437   68.8792   17.5161 c3        1 AS4   -0.2786
     22 C12        17.2053   70.0530   18.4906 c3        1 AS4   -0.0015
     23 C13        21.0400   70.7280   18.3377 c3        1 AS4   -0.0482
     24 C14        20.9927   72.1626   18.8552 c3        1 AS4   -0.1294
     25 O3         19.1099   77.2296   23.4145 o         1 AS4   -0.5113
     26 O4         16.4872   77.3192   23.8533 oh        1 AS4   -0.7018
     27 H1         19.4496   74.2700   19.5603 hc        1 AS4    0.0306
     28 H2         16.8468   73.5654   22.0559 hc        1 AS4   -0.0519
     29 H3         17.1352   74.0203   20.3865 hc        1 AS4   -0.0519
     30 H4         20.2001   69.6543   16.0419 ha        1 AS4    0.1927
     31 H5         21.0127   76.0496   22.4400 hc        1 AS4    0.1248
     32 H6         20.7316   76.7652   20.8867 hc        1 AS4    0.1248
     33 H7         18.5171   76.0002   20.7717 hc        1 AS4    0.0081
     34 H8         16.8618   75.3100   23.6793 h1        1 AS4    0.0252
     35 H9         16.4255   76.1176   22.1826 h1        1 AS4    0.0252
     36 H10        21.7375   74.8484   19.9272 hc        1 AS4   -0.0130
     37 H11        21.7767   74.0591   21.4798 hc        1 AS4   -0.0130
     38 H12        20.4498   71.7435   20.8773 hc        1 AS4    0.0516
     39 H13        18.2652   72.3844   18.8880 hc        1 AS4    0.1015
     40 H14        16.6722   71.6407   20.6114 h1        1 AS4    0.0027
     41 H15        16.1587   68.7854   17.0762 hc        1 AS4    0.0815
     42 H16        17.3584   67.9396   18.0210 hc        1 AS4    0.0815
     43 H17        16.4818   69.8941   19.2824 hc        1 AS4    0.0090
     44 H18        16.8904   70.9477   17.9598 hc        1 AS4    0.0090
     45 H19        21.4709   70.0866   19.1042 hc        1 AS4    0.0553
     46 H20        21.6890   70.6560   17.4719 hc        1 AS4    0.0553
     47 H21        20.6699   72.8200   18.0497 hc        1 AS4    0.0596
     48 H22        21.9922   72.4783   19.1364 hc        1 AS4    0.0596
     49 H23        15.5811   77.4759   23.6356 ho        1 AS4    0.4465
     50 H24        19.1726   68.2615   19.6176 hc        1 AS4    0.0982
     51 H25        19.7763   69.4424   20.7553 hc        1 AS4    0.0982
     52 H26        18.0844   68.9814   20.7659 hc        1 AS4    0.0982
     53 H27        17.8136   70.4537   22.0885 ho        1 AS4    0.4448
     54 H28        20.1620   72.7119   22.8921 h4        1 AS4    0.0306
@<TRIPOS>BOND
     1    1   13 1
     2    1   14 1
     3    1   15 1
     4    1   27 1
     5    2   14 1
     6    2   17 1
     7    2   28 1
     8    2   29 1
     9    3   14 1
    10    3   19 2
    11    3   54 1
    12    4    5 1
    13    4    8 1
    14    4   16 1
    15    4   22 1
    16    5   23 1
    17    6   30 1
    18    7   20 2
    19    7   21 1
    20    8   50 1
    21    8   51 1
    22    8   52 1
    23    9   10 1
    24    9   13 1
    25    9   31 1
    26    9   32 1
    27   10   11 1
    28   10   14 1
    29   10   33 1
    30   11   12 1
    31   11   25 2
    32   12   26 1
    33   12   34 1
    34   12   35 1
    35   13   36 1
    36   13   37 1
    37   15   16 1
    38   15   24 1
    39   15   38 1
    40   16   17 1
    41   16   39 1
    42   17   18 1
    43   17   40 1
    44   21   22 1
    45   21   41 1
    46   21   42 1
    47   22   43 1
    48   22   44 1
    49   23   24 1
    50   23   45 1
    51   23   46 1
    52   24   47 1
    53   24   48 1
    54    6    5 1
    55    6    7 1
    56   53   18 1
    57   49   26 1
@<TRIPOS>SUBSTRUCTURE
     1 AS4     1 RESIDUE           4 A     MOL     0 ROOT
