@<TRIPOS>MOLECULE
STR
53 56 1 0 0
SMALL
resp


@<TRIPOS>ATOM
      1 C12        17.2195   70.0030   18.4911 c3        1 MOL    0.0717
      2 C11        17.1926   68.7801   17.5774 c3        1 MOL   -0.3353
      3 C10        18.2031   68.9066   16.4629 c         1 MOL    0.7587
      4 O2         18.0259   68.4343   15.3769 o         1 MOL   -0.5921
      5 C9         19.4573   69.6038   16.8117 ce        1 MOL   -0.4980
      6 C8         19.6763   70.2068   17.9772 c2        1 MOL    0.0267
      7 C13        21.0362   70.7862   18.2832 c3        1 MOL   -0.0333
      8 C14        20.9528   72.2303   18.7735 c3        1 MOL   -0.1453
      9 C2         20.0047   72.3606   19.9663 c3        1 MOL   -0.0214
     10 C3         18.6039   71.8094   19.5965 c3        1 MOL    0.0143
     11 C7         18.6146   70.3299   19.0757 c3        1 MOL    0.2164
     12 C4         17.5814   72.0469   20.7285 c3        1 MOL   -0.0316
     13 C5         17.5235   73.5085   21.2039 c3        1 MOL   -0.2500
     14 C          18.9076   74.0250   21.6102 c3        1 MOL    0.2937
     15 C1         19.8584   73.8177   20.4110 c3        1 MOL   -0.0146
     16 C20        21.1090   74.6243   20.7791 c3        1 MOL   -0.0280
     17 C16        20.5533   75.8390   21.5647 c3        1 MOL   -0.2280
     18 C17        19.0405   75.5721   21.7673 c3        1 MOL   -0.0059
     19 C6         19.3871   73.3188   22.8941 c3        1 MOL   -0.4320
     20 C15        18.9569   69.3184   20.1933 c3        1 MOL   -0.3608
     21 C18        18.4871   76.1555   23.0604 c         1 MOL    0.5974
     22 O3         19.1467   76.2346   24.0533 o         1 MOL   -0.5511
     23 C19        17.0592   76.6582   23.0369 c3        1 MOL   -0.2658
     24 H1         16.8724   70.8595   17.9196 hc        1 MOL    0.0013
     25 H2         16.5087   69.8587   19.2958 hc        1 MOL    0.0013
     26 H3         17.4305   67.8743   18.1300 hc        1 MOL    0.0951
     27 H4         16.2116   68.6369   17.1413 hc        1 MOL    0.0951
     28 H5         20.2260   69.5582   16.0604 ha        1 MOL    0.1872
     29 H6         21.5093   70.1787   19.0533 hc        1 MOL    0.0495
     30 H7         21.6683   70.7164   17.4049 hc        1 MOL    0.0495
     31 H8         21.9467   72.5752   19.0416 hc        1 MOL    0.0519
     32 H9         20.6063   72.8671   17.9620 hc        1 MOL    0.0519
     33 H10        20.4207   71.7802   20.7862 hc        1 MOL    0.0461
     34 H11        18.2722   72.4099   18.7478 hc        1 MOL    0.0076
     35 H12        16.5902   71.7654   20.3935 hc        1 MOL    0.0276
     36 H13        17.8074   71.4081   21.5745 hc        1 MOL    0.0276
     37 H14        17.1305   74.1278   20.3996 hc        1 MOL    0.0508
     38 H15        16.8173   73.5786   22.0261 hc        1 MOL    0.0508
     39 H16        19.3920   74.3410   19.5756 hc        1 MOL    0.0195
     40 H17        21.7852   74.0390   21.3954 hc        1 MOL    0.0259
     41 H18        21.6693   74.9318   19.9035 hc        1 MOL    0.0259
     42 H19        21.0417   75.9494   22.5231 hc        1 MOL    0.0768
     43 H20        20.7035   76.7671   21.0247 hc        1 MOL    0.0768
     44 H21        18.4858   76.0196   20.9464 hc        1 MOL   -0.0113
     45 H22        19.8865   69.5578   20.6961 hc        1 MOL    0.0887
     46 H23        19.0614   68.3191   19.7870 hc        1 MOL    0.0887
     47 H24        18.1758   69.2869   20.9443 hc        1 MOL    0.0887
     48 H25        19.5188   72.2553   22.7489 hc        1 MOL    0.1096
     49 H26        20.3241   73.7204   23.2579 hc        1 MOL    0.1096
     50 H27        18.6616   73.4486   23.6899 hc        1 MOL    0.1096
     51 H28        16.7375   76.8970   24.0402 hc        1 MOL    0.0709
     52 H29        17.0066   77.5539   22.4221 hc        1 MOL    0.0709
     53 H30        16.3886   75.9291   22.5949 hc        1 MOL    0.0709
@<TRIPOS>BOND
     1    1    2 1
     2    1   11 1
     3    1   24 1
     4    1   25 1
     5    2    3 1
     6    2   26 1
     7    2   27 1
     8    3    4 2
     9    5   28 1
    10    6    7 1
    11    6   11 1
    12    7    8 1
    13    7   29 1
    14    7   30 1
    15    8    9 1
    16    8   31 1
    17    8   32 1
    18    9   10 1
    19    9   15 1
    20    9   33 1
    21   10   11 1
    22   10   12 1
    23   10   34 1
    24   11   20 1
    25   12   13 1
    26   12   35 1
    27   12   36 1
    28   13   14 1
    29   13   37 1
    30   13   38 1
    31   14   15 1
    32   14   18 1
    33   14   19 1
    34   15   16 1
    35   15   39 1
    36   16   17 1
    37   16   40 1
    38   16   41 1
    39   17   18 1
    40   17   42 1
    41   17   43 1
    42   18   21 1
    43   18   44 1
    44   19   48 1
    45   19   49 1
    46   19   50 1
    47   20   45 1
    48   20   46 1
    49   20   47 1
    50   21   22 2
    51   21   23 1
    52   23   51 1
    53   23   52 1
    54   23   53 1
    55    5    3 1
    56    5    6 1
@<TRIPOS>SUBSTRUCTURE
     1 MOL     1 RESIDUE           4 A     MOL     0 ROOT
