@<TRIPOS>MOLECULE
STR
53 56 1 0 0
SMALL
resp


@<TRIPOS>ATOM
      1 C1        -16.5957   13.9004   20.4371 c3        1 MOL    0.0717
      2 C2        -17.8316   14.2445   21.2647 c3        1 MOL   -0.3353
      3 C3        -18.4914   12.9998   21.8077 c         1 MOL    0.7587
      4 O1        -19.6740   12.9201   21.9772 o         1 MOL   -0.5921
      5 C4        -17.5780   11.8985   22.1734 ce        1 MOL   -0.4980
      6 C5        -16.2682   11.9075   21.9412 c2        1 MOL    0.0267
      7 C6        -15.4017   10.7869   22.4628 c3        1 MOL   -0.0333
      8 C7        -14.5030   10.1973   21.3777 c3        1 MOL   -0.1453
      9 C8        -13.6689   11.2816   20.6941 c3        1 MOL   -0.0214
     10 C9        -14.5950   12.3845   20.1208 c3        1 MOL    0.0143
     11 C10       -15.5540   13.0304   21.1805 c3        1 MOL    0.2164
     12 C11       -13.8010   13.4275   19.3052 c3        1 MOL   -0.0316
     13 C12       -12.9025   12.8038   18.2241 c3        1 MOL   -0.2500
     14 C13       -11.9602   11.7490   18.8131 c3        1 MOL    0.2937
     15 C14       -12.8250   10.7061   19.5543 c3        1 MOL   -0.0146
     16 C15       -11.8588    9.5505   19.8389 c3        1 MOL   -0.0280
     17 C16       -10.9109    9.5445   18.6129 c3        1 MOL   -0.2280
     18 C17       -11.2620   10.8057   17.7842 c3        1 MOL   -0.0059
     19 C18       -10.9068   12.4178   19.7186 c3        1 MOL   -0.4320
     20 C19       -14.7920   13.8997   22.2066 c3        1 MOL   -0.3608
     21 C20       -10.0706   11.3995   17.0450 c         1 MOL    0.5974
     22 O2         -8.9618   11.3502   17.4868 o         1 MOL   -0.5511
     23 C21       -10.3414   12.0444   15.7022 c3        1 MOL   -0.2658
     24 H1        -16.9220   13.3685   19.5475 hc        1 MOL    0.0013
     25 H2        -16.1317   14.8182   20.0964 hc        1 MOL    0.0013
     26 H3        -17.5708   14.8707   22.1146 hc        1 MOL    0.0951
     27 H4        -18.5575   14.7936   20.6775 hc        1 MOL    0.0951
     28 H5        -18.0410   11.0791   22.6946 ha        1 MOL    0.1872
     29 H6        -14.7771   11.1738   23.2667 hc        1 MOL    0.0495
     30 H7        -16.0264   10.0172   22.9021 hc        1 MOL    0.0495
     31 H8        -13.8562    9.4449   21.8184 hc        1 MOL    0.0519
     32 H9        -15.1177    9.6899   20.6369 hc        1 MOL    0.0519
     33 H10       -13.0073   11.7125   21.4417 hc        1 MOL    0.0461
     34 H11       -15.2508   11.8723   19.4147 hc        1 MOL    0.0076
     35 H12       -14.4857   14.1107   18.8169 hc        1 MOL    0.0276
     36 H13       -13.1914   14.0320   19.9669 hc        1 MOL    0.0276
     37 H14       -13.5303   12.3411   17.4646 hc        1 MOL    0.0508
     38 H15       -12.3495   13.5982   17.7313 hc        1 MOL    0.0508
     39 H16       -13.5343   10.3360   18.8131 hc        1 MOL    0.0195
     40 H17       -11.3050    9.7201   20.7577 hc        1 MOL    0.0259
     41 H18       -12.3757    8.6045   19.9542 hc        1 MOL    0.0259
     42 H19        -9.8727    9.5756   18.9134 hc        1 MOL    0.0768
     43 H20       -11.0394    8.6508   18.0125 hc        1 MOL    0.0768
     44 H21       -12.0096   10.5465   17.0387 hc        1 MOL   -0.0113
     45 H22       -13.9893   13.3571   22.6919 hc        1 MOL    0.0887
     46 H23       -15.4602   14.2468   22.9862 hc        1 MOL    0.0887
     47 H24       -14.3588   14.7734   21.7332 hc        1 MOL    0.0887
     48 H25       -11.3545   12.9004   20.5764 hc        1 MOL    0.1096
     49 H26       -10.1719   11.7119   20.0839 hc        1 MOL    0.1096
     50 H27       -10.3630   13.1778   19.1678 hc        1 MOL    0.1096
     51 H28        -9.4571   12.5609   15.3580 hc        1 MOL    0.0709
     52 H29       -10.6071   11.2728   14.9831 hc        1 MOL    0.0709
     53 H30       -11.1779   12.7329   15.7536 hc        1 MOL    0.0709
@<TRIPOS>BOND
     1    1    2 1
     2    1   11 1
     3    1   24 1
     4    1   25 1
     5    2    3 1
     6    2   26 1
     7    2   27 1
     8    3    4 2
     9    5   28 1
    10    6    7 1
    11    6   11 1
    12    7    8 1
    13    7   29 1
    14    7   30 1
    15    8    9 1
    16    8   31 1
    17    8   32 1
    18    9   10 1
    19    9   15 1
    20    9   33 1
    21   10   11 1
    22   10   12 1
    23   10   34 1
    24   11   20 1
    25   12   13 1
    26   12   35 1
    27   12   36 1
    28   13   14 1
    29   13   37 1
    30   13   38 1
    31   14   15 1
    32   14   18 1
    33   14   19 1
    34   15   16 1
    35   15   39 1
    36   16   17 1
    37   16   40 1
    38   16   41 1
    39   17   18 1
    40   17   42 1
    41   17   43 1
    42   18   21 1
    43   18   44 1
    44   19   48 1
    45   19   49 1
    46   19   50 1
    47   20   45 1
    48   20   46 1
    49   20   47 1
    50   21   22 2
    51   21   23 1
    52   23   51 1
    53   23   52 1
    54   23   53 1
    55    5    6 1
    56    5    3 1
@<TRIPOS>SUBSTRUCTURE
     1 MOL     1 RESIDUE           4 A     MOL     0 ROOT
