@<TRIPOS>MOLECULE
STR
53 56 1 0 0
SMALL
resp


@<TRIPOS>ATOM
      1 C1         -8.0203   11.0844   20.4371 c3        1 MOL    0.0717
      2 C2         -9.2562   11.4285   21.2647 c3        1 MOL   -0.3353
      3 C3         -9.9160   10.1838   21.8077 c         1 MOL    0.7587
      4 O1        -11.0986   10.1041   21.9772 o         1 MOL   -0.5921
      5 C4         -9.0025    9.0825   22.1734 ce        1 MOL   -0.4980
      6 C5         -7.6927    9.0915   21.9412 c2        1 MOL    0.0267
      7 C6         -6.8262    7.9709   22.4628 c3        1 MOL   -0.0333
      8 C7         -5.9275    7.3813   21.3777 c3        1 MOL   -0.1453
      9 C8         -5.0934    8.4656   20.6941 c3        1 MOL   -0.0214
     10 C9         -6.0195    9.5685   20.1208 c3        1 MOL    0.0143
     11 C10        -6.9786   10.2144   21.1805 c3        1 MOL    0.2164
     12 C11        -5.2256   10.6115   19.3052 c3        1 MOL   -0.0316
     13 C12        -4.3270    9.9878   18.2241 c3        1 MOL   -0.2500
     14 C13        -3.3847    8.9330   18.8131 c3        1 MOL    0.2937
     15 C14        -4.2495    7.8901   19.5543 c3        1 MOL   -0.0146
     16 C15        -3.2833    6.7345   19.8389 c3        1 MOL   -0.0280
     17 C16        -2.3354    6.7285   18.6129 c3        1 MOL   -0.2280
     18 C17        -2.6865    7.9897   17.7842 c3        1 MOL   -0.0059
     19 C18        -2.3313    9.6018   19.7186 c3        1 MOL   -0.4320
     20 C19        -6.2166   11.0837   22.2066 c3        1 MOL   -0.3608
     21 C20        -1.4951    8.5836   17.0450 c         1 MOL    0.5974
     22 O2         -0.3863    8.5343   17.4868 o         1 MOL   -0.5511
     23 C21        -1.7659    9.2285   15.7022 c3        1 MOL   -0.2658
     24 H1         -8.3466   10.5525   19.5475 hc        1 MOL    0.0013
     25 H2         -7.5563   12.0022   20.0964 hc        1 MOL    0.0013
     26 H3         -8.9954   12.0547   22.1146 hc        1 MOL    0.0951
     27 H4         -9.9821   11.9776   20.6775 hc        1 MOL    0.0951
     28 H5         -9.4655    8.2631   22.6946 ha        1 MOL    0.1872
     29 H6         -6.2016    8.3578   23.2667 hc        1 MOL    0.0495
     30 H7         -7.4509    7.2012   22.9021 hc        1 MOL    0.0495
     31 H8         -5.2807    6.6289   21.8184 hc        1 MOL    0.0519
     32 H9         -6.5422    6.8739   20.6369 hc        1 MOL    0.0519
     33 H10        -4.4318    8.8965   21.4417 hc        1 MOL    0.0461
     34 H11        -6.6753    9.0563   19.4147 hc        1 MOL    0.0076
     35 H12        -5.9103   11.2947   18.8169 hc        1 MOL    0.0276
     36 H13        -4.6160   11.2160   19.9669 hc        1 MOL    0.0276
     37 H14        -4.9548    9.5251   17.4646 hc        1 MOL    0.0508
     38 H15        -3.7741   10.7822   17.7313 hc        1 MOL    0.0508
     39 H16        -4.9588    7.5200   18.8131 hc        1 MOL    0.0195
     40 H17        -2.7295    6.9041   20.7577 hc        1 MOL    0.0259
     41 H18        -3.8002    5.7885   19.9542 hc        1 MOL    0.0259
     42 H19        -1.2972    6.7596   18.9134 hc        1 MOL    0.0768
     43 H20        -2.4639    5.8348   18.0125 hc        1 MOL    0.0768
     44 H21        -3.4341    7.7305   17.0387 hc        1 MOL   -0.0113
     45 H22        -5.4139   10.5411   22.6919 hc        1 MOL    0.0887
     46 H23        -6.8848   11.4308   22.9862 hc        1 MOL    0.0887
     47 H24        -5.7834   11.9574   21.7332 hc        1 MOL    0.0887
     48 H25        -2.7791   10.0844   20.5764 hc        1 MOL    0.1096
     49 H26        -1.5964    8.8959   20.0839 hc        1 MOL    0.1096
     50 H27        -1.7876   10.3618   19.1678 hc        1 MOL    0.1096
     51 H28        -0.8816    9.7450   15.3580 hc        1 MOL    0.0709
     52 H29        -2.0316    8.4569   14.9831 hc        1 MOL    0.0709
     53 H30        -2.6024    9.9170   15.7536 hc        1 MOL    0.0709
@<TRIPOS>BOND
     1    1    2 1
     2    1   11 1
     3    1   24 1
     4    1   25 1
     5    2    3 1
     6    2   26 1
     7    2   27 1
     8    3    4 2
     9    5   28 1
    10    6    7 1
    11    6   11 1
    12    7    8 1
    13    7   29 1
    14    7   30 1
    15    8    9 1
    16    8   31 1
    17    8   32 1
    18    9   10 1
    19    9   15 1
    20    9   33 1
    21   10   11 1
    22   10   12 1
    23   10   34 1
    24   11   20 1
    25   12   13 1
    26   12   35 1
    27   12   36 1
    28   13   14 1
    29   13   37 1
    30   13   38 1
    31   14   15 1
    32   14   18 1
    33   14   19 1
    34   15   16 1
    35   15   39 1
    36   16   17 1
    37   16   40 1
    38   16   41 1
    39   17   18 1
    40   17   42 1
    41   17   43 1
    42   18   21 1
    43   18   44 1
    44   19   48 1
    45   19   49 1
    46   19   50 1
    47   20   45 1
    48   20   46 1
    49   20   47 1
    50   21   22 2
    51   21   23 1
    52   23   51 1
    53   23   52 1
    54   23   53 1
    55    5    6 1
    56    5    3 1
@<TRIPOS>SUBSTRUCTURE
     1 MOL     1 RESIDUE           4 A     MOL     0 ROOT
